omf/static/testFiles/iowa_240/network.iowa240.dss
// This is the OpenDSS Master file to solve the test system snapshot power flow.

Clear
new circuit.240_node_test_system        ! Initiate a new circuit called "240_node_test_system"

!--------------------------------------------------------!

! This file is to define the parameters of the equivalent voltage source. 

Edit "Vsource.source" Bus1= eq_source_bus.1.2.3 Phases=3 Angle=0.00000 Pu=1.00000 BaseKv=69.00000 R1=4.54263687 X1=10.52743053 R0=7.36552668 X0=24.50463867 
! Voltage source name, bus, number of phases, voltage angle, set voltage in per unit, line-to-line voltage rating, positive-sequence resistance, positive-sequence reactance, zero-sequence resistance, zero-sequence reactance


//This file is to define the parameters of load tap changing substation transformer.

//-------------------  substation transformer --------------------//
New Transformer.Sub_Xfmr Phases=3 Windings=2 XHL=6.26591063                                 ! Transformer name, number of phases, number of windings, percent reactance high-to-low 
~ wdg=1 bus=eq_source_bus.1.2.3   conn=delta kV=69.000000 kva=10000.00000000 %R=0.62659091  ! Winding number, bus, connection, voltage rating, kVA rating, percent resistance 
~ wdg=2 bus=bus_Xfmr.1.2.3.0      conn=wye   kV=13.800000 kva=10000.00000000 %R=0.62659091



//--------------------  3 single-phase tap changers -------------//

New Transformer.sub_regulator_A Phases=1 bank=Reg1 Windings=2 XHL=0.0100000                 ! Tap changer name, number of phases, number of windings, percent reactance high-to-low 
~ wdg=1 bus=bus_Xfmr.1 conn=wye kV=7.9677 kva=3500 %R=0.00100000
~ wdg=2 bus=bus1.1     conn=wye kV=7.9677 kva=3500 %R=0.00100000 NumTaps=32 MaxTap=1.1000 MinTap=0.9000  
! Winding number, bus, connection, voltage rating, kVA rating, percent resistance, total number of taps, max per unit tap, min per unit tap

New Transformer.sub_regulator_B Phases=1 bank=Reg1 Windings=2 XHL=0.0100000
~ wdg=1 bus=bus_Xfmr.2 conn=wye kV=7.9677 kva=3500 %R=0.00100000
~ wdg=2 bus=bus1.2     conn=wye kV=7.9677 kva=3500 %R=0.00100000 NumTaps=32 MaxTap=1.1000 MinTap=0.9000

New Transformer.sub_regulator_C Phases=1 bank=Reg1 Windings=2 XHL=0.0100000
~ wdg=1 bus=bus_Xfmr.3 conn=wye kV=7.9677 kva=3500 %R=0.00100000
~ wdg=2 bus=bus1.3     conn=wye kV=7.9677 kva=3500 %R=0.00100000 NumTaps=32 MaxTap=1.1000 MinTap=0.9000







//This file is to define the parameters of tap changer control for substation transformer.

New RegControl.Reg_contr_A Transformer=sub_regulator_A bus=bus1.1 Winding=2 vReg=123.00000 R=0.00000 X=0.00000 Band=2  PTratio=66.395279 vLimit=129.00000  
New RegControl.Reg_contr_B Transformer=sub_regulator_B bus=bus1.2 Winding=2 vReg=123.00000 R=0.00000 X=0.00000 Band=2  PTratio=66.395279 vLimit=129.00000   
New RegControl.Reg_contr_C Transformer=sub_regulator_C bus=bus1.3 Winding=2 vReg=123.00000 R=0.00000 X=0.00000 Band=2  PTratio=66.395279 vLimit=129.00000  
! Tap changer control name, name of tap changer to be controlled, name of controlled bus, number of windings, voltage setting, R setting on the line drop compensator, X setting on the line drop compensator, voltage bandwdith, PT ratio, voltage limit 



// This file is to define the line configurations, including the series resistance matrix, series reactance matrix, and shunt nodal capacitance matrix with a variety of phase configurations.
// For the linecode name, OH denotes overhead, UG denotes underground, 1p denotes 1 phase, 3p denotes 3 phases, "type+number" denotes conductor type.

//--------------------------------------------------------------------------------------//
//            three-phase overhead line using type 1 overhead conductor
//--------------------------------------------------------------------------------------//
New LineCode.OH_3p_type1 nphases= 3 Units= mi    			  ! Configuration name, number of phases, unit
 ~ Rmatrix= (0.615927 | 0.170927 0.615927 | 0.170927 0.170927 0.615927 )  ! Series resistance matrix
 ~ Xmatrix= (1.209389 | 0.433188 1.209389 | 0.433188 0.433188 1.209389 )  ! Series reactance matrix


//--------------------------------------------------------------------------------------//
//            two-phase overhead line using type 2 overhead conductor
//--------------------------------------------------------------------------------------//
New LineCode.OH_2p_type2 nphases= 2 Units= mi
 ~ Rmatrix= (0.589255 | 0.169495 0.589255 ) 
 ~ Xmatrix= (1.074856 | 0.387876 1.074856 )


//--------------------------------------------------------------------------------------//
//            one-phase overhead line using type 2 overhead conductor
//--------------------------------------------------------------------------------------//
New LineCode.OH_1p_type2 nphases= 1 Units= mi
 ~ Rmatrix= (0.592473 ) 
 ~ Xmatrix= (1.065821 ) 


//--------------------------------------------------------------------------------------//
//           three-phase overhead line using type 5 overhead conductor
//--------------------------------------------------------------------------------------//
New LineCode.OH_3p_type5 nphases= 3 Units= mi
 ~ Rmatrix= (1.191602 | 0.234849 1.191602 | 0.234849 0.234849 1.191602 ) 
 ~ Xmatrix= (1.209452 | 0.489263 1.209452 | 0.489263 0.489263 1.209452 ) 


//--------------------------------------------------------------------------------------//
//           one-phase overhead line using type 5 overhead conductor
//--------------------------------------------------------------------------------------//
New LineCode.OH_1p_type5 nphases= 1 Units= mi
 ~ Rmatrix= (1.194260 ) 
 ~ Xmatrix= (1.205420 ) 



//--------------------------------------------------------------------------------------//
//           three-phase underground cable using type 1 underground conductor
//--------------------------------------------------------------------------------------//
New LineCode.UG_3p_type1 nphases= 3 Units= mi
 ~ Rmatrix= (1.009423 | 0.409732 1.009423 | 0.409732 0.409732 1.009423 ) 
 ~ Xmatrix= (0.493164 | 0.100849 0.493164 | 0.100849 0.100849 0.493164 ) 
 ~ Cmatrix= (286.101593 | 0.000000 286.101593 | 0.000000 0.000000 286.101593 )     ! Shunt nodal capacitance matrix



//--------------------------------------------------------------------------------------//
//           three-phase underground cable using type 2 underground conductor
//--------------------------------------------------------------------------------------//
New LineCode.UG_3p_type2 nphases= 3 Units= mi
 ~ Rmatrix= (1.692577 | 0.550087 1.692577 | 0.550087 0.550087 1.692577 ) 
 ~ Xmatrix= (0.791756 | 0.344931 0.791756 | 0.344931 0.344931 0.791756 ) 
 ~ Cmatrix= (207.880539 | 0.000000 207.880539 | 0.000000 0.000000 207.880539 )



//--------------------------------------------------------------------------------------//
//            one-phase underground cable using type 2 underground conductor
//--------------------------------------------------------------------------------------//
New LineCode.UG_1p_type2 nphases= 1 Units= mi
 ~ Rmatrix= (1.675338 ) 
 ~ Xmatrix= (1.210007 ) 
 ~ Cmatrix= (207.880539 )



//--------------------------------------------------------------------------------------//
//            line repersenting transformer windings=2 kva=112.5
//--------------------------------------------------------------------------------------//
New LineCode.T_type1 nphases= 3 Units= Ft
 ~ Rmatrix= (41.13504 | 0 41.13504 | 0 0 41.13504 )
 ~ Xmatrix= (65.51136 | 0 65.51136 | 0 0 65.51136 )



//--------------------------------------------------------------------------------------//
//            line repersenting transformer windings=2 kva=75.0
//--------------------------------------------------------------------------------------//
New LineCode.T_type2 nphases= 3 Units= Ft
 ~ Rmatrix= (57.63984 | 0 57.63984 | 0 0 57.63984 )
 ~ Xmatrix= (48.49872 | 0 48.49872 | 0 0 48.49872 )



//--------------------------------------------------------------------------------------//
//            line repersenting transformer windings=99 kva=75.0
//--------------------------------------------------------------------------------------//
New LineCode.T_type3 nphases= 1 Units= Ft
 ~ Rmatrix= (25.392 )
 ~ Xmatrix= (53.3232)



//--------------------------------------------------------------------------------------//
//            line repersenting transformer windings=99 kva=25.0
//--------------------------------------------------------------------------------------//
New LineCode.T_type4 nphases= 1 Units= Ft
 ~ Rmatrix= (101.31408 )
 ~ Xmatrix= (143.21088)



//--------------------------------------------------------------------------------------//
//            line repersenting transformer windings=2 kva=45.0
//--------------------------------------------------------------------------------------//
New LineCode.T_type5 nphases= 3 Units= Ft
 ~ Rmatrix= (106.6464 | 0 106.6464 | 0 0 106.6464 )
 ~ Xmatrix= (73.2136 | 0 73.2136 | 0 0 73.2136 )



//--------------------------------------------------------------------------------------//
//            line repersenting transformer windings=3 kva=25.0
//--------------------------------------------------------------------------------------//
New LineCode.T_type6 nphases= 1 Units= Ft
 ~ Rmatrix= (33.773617 )
 ~ Xmatrix= (35.805113)



//--------------------------------------------------------------------------------------//
//            line repersenting transformer windings=3 kva=37.5
//--------------------------------------------------------------------------------------//
New LineCode.T_type7 nphases= 1 Units= Ft
 ~ Rmatrix= (20.145667 )
 ~ Xmatrix= (21.965548)



//--------------------------------------------------------------------------------------//
//            line repersenting transformer windings=3 kva=50.0
//--------------------------------------------------------------------------------------//
New LineCode.T_type8 nphases= 1 Units= Ft
 ~ Rmatrix= (13.966534 )
 ~ Xmatrix= (17.140746)



//--------------------------------------------------------------------------------------//
//            line repersenting transformer windings=2 kva=300.0
//--------------------------------------------------------------------------------------//
New LineCode.T_type9 nphases= 3 Units= Ft
 ~ Rmatrix= (11.4264 | 0 11.4264 | 0 0 11.4264 )
 ~ Xmatrix= (28.566 | 0 28.566 | 0 0 28.566 )



//--------------------------------------------------------------------------------------//
//            line repersenting transformer windings=3 kva=15.0
//--------------------------------------------------------------------------------------//
New LineCode.T_type10 nphases= 1 Units= Ft
 ~ Rmatrix= (70.255896 )
 ~ Xmatrix= (40.629916)



//--------------------------------------------------------------------------------------//
//            line repersenting transformer windings=2 kva=225.0
//--------------------------------------------------------------------------------------//
New LineCode.T_type11 nphases= 3 Units= Ft
 ~ Rmatrix= (18.6208 | 0 18.6208 | 0 0 18.6208 )
 ~ Xmatrix= (39.3576 | 0 39.3576 | 0 0 39.3576 )



//--------------------------------------------------------------------------------------//
//            line repersenting transformer windings=3 kva=100.0
//--------------------------------------------------------------------------------------//
New LineCode.T_type12 nphases= 1 Units= Ft
 ~ Rmatrix= (7.110235 )
 ~ Xmatrix= (10.665353)



//--------------------------------------------------------------------------------------//
//            line repersenting transformer windings=2 kva=500.0
//--------------------------------------------------------------------------------------//
New LineCode.T_type13 nphases= 3 Units= Ft
 ~ Rmatrix= (6.09408 | 0 6.09408 | 0 0 6.09408 )
 ~ Xmatrix= (22.47192 | 0 22.47192 | 0 0 22.47192 )




//***************************************************************************************//
//                                             Feeder A
//***************************************************************************************//
//--------------------------------------------------------//
New Line.L_1001_1002 phases=3 Bus1=bus1001.1.2.3 Bus2=bus1002.1.2.3    ! Line segment name, number of phases, 1st bus, 2nd bus
 ~ length=2967 units=Ft LineCode=UG_3p_type1		         ! Length, unit, line configuration

//--------------------------------------------------------//
New Line.L_1002_1003 phases=3 Bus1=bus1002.1.2.3 Bus2=bus1003.1.2.3
 ~ length=372 units=Ft LineCode=UG_3p_type2

//--------------------------------------------------------//
New Line.L_1002_1004 phases=3 Bus1=bus1002.1.2.3 Bus2=bus1004.1.2.3
 ~ length=638 units=Ft LineCode=OH_3p_type1

//--------------------------------------------------------//
New Line.L_1004_1005 phases=3 Bus1=bus1004.1.2.3 Bus2=bus1005.1.2.3
 ~ length=394 units=Ft LineCode=OH_3p_type1

//--------------------------------------------------------//
New Line.L_1005_1006 phases=3 Bus1=bus1005.1.2.3 Bus2=bus1006.1.2.3
 ~ length=1049 units=Ft LineCode=OH_3p_type1

//--------------------------------------------------------//------------AB
New Line.L_1006_1007 phases=2 Bus1=bus1006.1.2 Bus2=bus1007.1.2
 ~ length=2000 units=Ft LineCode=OH_2p_type2

//--------------------------------------------------------//
New Line.L_1006_1008 phases=3 Bus1=bus1006.1.2.3 Bus2=bus1008.1.2.3
 ~ length=454 units=Ft LineCode=OH_3p_type1

//--------------------------------------------------------//
New Line.L_1008_1009 phases=3 Bus1=bus1008.1.2.3 Bus2=bus1009.1.2.3
 ~ length=1082 units=Ft LineCode=OH_3p_type1

//--------------------------------------------------------//
New Line.L_1009_1010 phases=3 Bus1=bus1009.1.2.3 Bus2=bus1010.1.2.3
 ~ length=169 units=Ft LineCode=OH_3p_type1

//--------------------------------------------------------//
New Line.L_1009_1011 phases=3 Bus1=bus1009.1.2.3 Bus2=bus1011.1.2.3
 ~ length=60 units=Ft LineCode=UG_3p_type2

//--------------------------------------------------------//
New Line.L_1011_1012 phases=3 Bus1=bus1011.1.2.3 Bus2=bus1012.1.2.3
 ~ length=60 units=Ft LineCode=UG_3p_type2

//--------------------------------------------------------//
New Line.L_1012_1013 phases=3 Bus1=bus1012.1.2.3 Bus2=bus1013.1.2.3
 ~ length=306 units=Ft LineCode=UG_3p_type2

//--------------------------------------------------------//----------B
New Line.L_1013_1014 phases=1 Bus1=bus1013.2.0 Bus2=bus1014.2.0
 ~ length=208 units=Ft LineCode=UG_1p_type2

//--------------------------------------------------------//----------B
New Line.L_1014_1015 phases=1 Bus1=bus1014.2.0 Bus2=bus1015.2.0
 ~ length=126 units=Ft LineCode=UG_1p_type2

//--------------------------------------------------------//----------C
New Line.L_1013_1016 phases=1 Bus1=bus1013.3.0 Bus2=bus1016.3.0
 ~ length=468 units=Ft LineCode=UG_1p_type2

//--------------------------------------------------------//----------C
New Line.L_1016_1017 phases=1 Bus1=bus1016.3.0 Bus2=bus1017.3.0
 ~ length=71 units=Ft LineCode=UG_1p_type2

//--------------------------------------------------------//----------
New Line.L_1003_1003_L phases=3 Bus1=bus1003.1.2.3.0 Bus2=T_bus1003_L.1.2.3.0
 ~ length=1 units=Ft LineCode=T_type1

//--------------------------------------------------------//----------
New Line.L_1004_1004_L phases=3 Bus1=bus1004.1.2.3.0 Bus2=T_bus1004_L.1.2.3.0
 ~ length=1 units=Ft LineCode=T_type2

//--------------------------------------------------------//----------
New Line.L_1005_1005_L phases=3 Bus1=bus1005.1.2.3.0 Bus2=T_bus1005_L.1.2.3.0
 ~ length=1 units=Ft LineCode=T_type2

//--------------------------------------------------------//----------
New Line.L_1006_1006_L_1 phases=1 Bus1=bus1006.1.0 Bus2=T_bus1006_L.1.0
 ~ length=1 units=Ft LineCode=T_type3

New Line.L_1006_1006_L_2 phases=1 Bus1=bus1006.2.0 Bus2=T_bus1006_L.2.0
 ~ length=1 units=Ft LineCode=T_type3

//--------------------------------------------------------//----------
New Line.L_1007_1007_L_1 phases=1 Bus1=bus1007.1.0 Bus2=T_bus1007_L.1.0
 ~ length=1 units=Ft LineCode=T_type4

New Line.L_1007_1007_L_2 phases=1 Bus1=bus1007.2.0 Bus2=T_bus1007_L.2.0
 ~ length=1 units=Ft LineCode=T_type4

//--------------------------------------------------------//----------
New Line.L_1008_1008_L phases=3 Bus1=bus1008.1.2.3.0 Bus2=T_bus1008_L.1.2.3.0
 ~ length=1 units=Ft LineCode=T_type5

//--------------------------------------------------------//----------
New Line.L_1009_1009_L phases=3 Bus1=bus1009.1.2.3.0 Bus2=T_bus1009_L.1.2.3.0
 ~ length=1 units=Ft LineCode=T_type2

//--------------------------------------------------------//----------
New Line.L_1010_1010_L phases=3 Bus1=bus1010.1.2.3.0 Bus2=T_bus1010_L.1.2.3.0
 ~ length=1 units=Ft LineCode=T_type5

//--------------------------------------------------------//----------
New Line.L_1011_1011_L phases=1 Bus1=bus1011.1.0 Bus2=T_bus1011_L.1.0
 ~ length=1 units=Ft LineCode=T_type6

//--------------------------------------------------------//----------
New Line.L_1012_1012_L phases=1 Bus1=bus1012.2.0 Bus2=T_bus1012_L.2.0
 ~ length=1 units=Ft LineCode=T_type7

//--------------------------------------------------------//----------
New Line.L_1013_1013_L phases=3 Bus1=bus1013.1.2.3.0 Bus2=T_bus1013_L.1.2.3.0
 ~ length=1 units=Ft LineCode=T_type5

//--------------------------------------------------------//----------
New Line.L_1014_1014_L phases=1 Bus1=bus1014.2.0 Bus2=T_bus1014_L.2.0
 ~ length=1 units=Ft LineCode=T_type6

//--------------------------------------------------------//----------
New Line.L_1015_1015_L phases=1 Bus1=bus1015.2.0 Bus2=T_bus1015_L.2.0
 ~ length=1 units=Ft LineCode=T_type6

//--------------------------------------------------------//----------
New Line.L_1016_1016_L phases=1 Bus1=bus1016.3.0 Bus2=T_bus1016_L.3.0
 ~ length=1 units=Ft LineCode=T_type8

//--------------------------------------------------------//----------
New Line.L_1017_1017_L phases=1 Bus1=bus1017.3.0 Bus2=T_bus1017_L.3.0
 ~ length=1 units=Ft LineCode=T_type7



//***************************************************************************************//
//                                             Feeder B
//***************************************************************************************//
//--------------------------------------------------------//
New Line.L_2001_2002 phases=3 Bus1=bus2001.1.2.3 Bus2=bus2002.1.2.3
 ~ length=1388 units=Ft LineCode=UG_3p_type1

//--------------------------------------------------------//
New Line.L_2002_2003 phases=3 Bus1=bus2002.1.2.3 Bus2=bus2003.1.2.3
 ~ length=1281 units=Ft LineCode=OH_3p_type1

//--------------------------------------------------------//
New Line.L_2003_2004 phases=3 Bus1=bus2003.1.2.3 Bus2=bus2004.1.2.3
 ~ length=798 units=Ft LineCode=OH_3p_type1

//--------------------------------------------------------//
New Line.L_2004_2005 phases=3 Bus1=bus2004.1.2.3 Bus2=bus2005.1.2.3
 ~ length=317 units=Ft LineCode=OH_3p_type1

//--------------------------------------------------------//
New Line.L_2005_2006 phases=3 Bus1=bus2005.1.2.3 Bus2=bus2006.1.2.3
 ~ length=145 units=Ft LineCode=OH_3p_type1

//--------------------------------------------------------//--------A
New Line.L_2006_2007 phases=1 Bus1=bus2006.1 Bus2=bus2007.1
 ~ length=245 units=Ft LineCode=OH_1p_type5

//--------------------------------------------------------//--------A
New Line.L_2007_2008 phases=1 Bus1=bus2007.1 Bus2=bus2008.1
 ~ length=125 units=Ft LineCode=UG_1p_type2

//--------------------------------------------------------//--------A
New Line.L_2007_2009 phases=1 Bus1=bus2007.1 Bus2=bus2009.1
 ~ length=161 units=Ft LineCode=OH_1p_type2

//--------------------------------------------------------//
New Line.L_2006_2010 phases=3 Bus1=bus2006.1.2.3 Bus2=bus2010.1.2.3
 ~ length=170 units=Ft LineCode=OH_3p_type1

//--------------------------------------------------------//
New Line.L_2010_2011 phases=3 Bus1=bus2010.1.2.3 Bus2=bus2011.1.2.3
 ~ length=275 units=Ft LineCode=OH_3p_type1

//--------------------------------------------------------//
New Line.L_2011_2012 phases=3 Bus1=bus2011.1.2.3 Bus2=bus2012.1.2.3
 ~ length=503 units=Ft LineCode=OH_3p_type1

//--------------------------------------------------------//
New Line.L_2013_2014 phases=3 Bus1=bus2013.1.2.3 Bus2=bus2014.1.2.3
 ~ length=268 units=Ft LineCode=OH_3p_type1

//--------------------------------------------------------//--------B
New Line.L_2014_2015 phases=1 Bus1=bus2014.2 Bus2=bus2015.2
 ~ length=120 units=Ft LineCode=UG_1p_type2

//--------------------------------------------------------//
New Line.L_2014_2016 phases=3 Bus1=bus2014.1.2.3 Bus2=bus2016.1.2.3
 ~ length=257 units=Ft LineCode=OH_3p_type1

//--------------------------------------------------------//
New Line.L_2016_2017 phases=3 Bus1=bus2016.1.2.3 Bus2=bus2017.1.2.3
 ~ length=174 units=Ft LineCode=UG_3p_type2

//--------------------------------------------------------//
New Line.L_2017_2018 phases=3 Bus1=bus2017.1.2.3 Bus2=bus2018.1.2.3
 ~ length=447 units=Ft LineCode=UG_3p_type2

//--------------------------------------------------------//
New Line.L_2013_2019 phases=3 Bus1=bus2013.1.2.3 Bus2=bus2019.1.2.3
 ~ length=45 units=Ft LineCode=OH_3p_type1

//--------------------------------------------------------//--------B
New Line.L_2019_2020 phases=1 Bus1=bus2019.2 Bus2=bus2020.2
 ~ length=642 units=Ft LineCode=UG_1p_type2

//--------------------------------------------------------//
New Line.L_2019_2021 phases=3 Bus1=bus2019.1.2.3 Bus2=bus2021.1.2.3
 ~ length=43 units=Ft LineCode=OH_3p_type1

//--------------------------------------------------------//--------C
New Line.L_2021_2022 phases=1 Bus1=bus2021.3 Bus2=bus2022.3
 ~ length=205 units=Ft LineCode=UG_1p_type2

//--------------------------------------------------------//--------C
New Line.L_2022_2023 phases=1 Bus1=bus2022.3 Bus2=bus2023.3
 ~ length=150 units=Ft LineCode=UG_1p_type2

//--------------------------------------------------------//--------C
New Line.L_2023_2024 phases=1 Bus1=bus2023.3 Bus2=bus2024.3
 ~ length=408 units=Ft LineCode=UG_1p_type2

//--------------------------------------------------------//--------C
New Line.L_2024_2025 phases=1 Bus1=bus2024.3 Bus2=bus2025.3
 ~ length=331 units=Ft LineCode=UG_1p_type2

//--------------------------------------------------------//
New Line.L_2026_2027 phases=3 Bus1=bus2026.1.2.3 Bus2=bus2027.1.2.3
 ~ length=369 units=Ft LineCode=OH_3p_type1

//--------------------------------------------------------//
New Line.L_2027_2028 phases=3 Bus1=bus2027.1.2.3 Bus2=bus2028.1.2.3
 ~ length=285 units=Ft LineCode=UG_3p_type2

//--------------------------------------------------------//
New Line.L_2028_2029 phases=3 Bus1=bus2028.1.2.3 Bus2=bus2029.1.2.3
 ~ length=131 units=Ft LineCode=UG_3p_type2

//--------------------------------------------------------//
New Line.L_2029_2030 phases=3 Bus1=bus2029.1.2.3 Bus2=bus2030.1.2.3
 ~ length=165 units=Ft LineCode=UG_3p_type2

//--------------------------------------------------------//
New Line.L_2030_2031 phases=3 Bus1=bus2030.1.2.3 Bus2=bus2031.1.2.3
 ~ length=245 units=Ft LineCode=UG_3p_type2

//--------------------------------------------------------//
New Line.L_2027_2032 phases=3 Bus1=bus2027.1.2.3 Bus2=bus2032.1.2.3
 ~ length=149 units=Ft LineCode=OH_3p_type1

//--------------------------------------------------------//
New Line.L_2032_2033 phases=3 Bus1=bus2032.1.2.3 Bus2=bus2033.1.2.3
 ~ length=289 units=Ft LineCode=OH_3p_type1

//--------------------------------------------------------//
New Line.L_2033_2034 phases=3 Bus1=bus2033.1.2.3 Bus2=bus2034.1.2.3
 ~ length=185 units=Ft LineCode=OH_3p_type5

//--------------------------------------------------------//
New Line.L_2033_2035 phases=3 Bus1=bus2033.1.2.3 Bus2=bus2035.1.2.3
 ~ length=160 units=Ft LineCode=OH_3p_type1

//--------------------------------------------------------//
New Line.L_2035_2036 phases=3 Bus1=bus2035.1.2.3 Bus2=bus2036.1.2.3
 ~ length=160 units=Ft LineCode=OH_3p_type1

//--------------------------------------------------------//
New Line.L_2036_2037 phases=3 Bus1=bus2036.1.2.3 Bus2=bus2037.1.2.3
 ~ length=80 units=Ft LineCode=OH_3p_type1

//--------------------------------------------------------//
New Line.L_2037_2038 phases=3 Bus1=bus2037.1.2.3 Bus2=bus2038.1.2.3
 ~ length=192 units=Ft LineCode=OH_3p_type1

//--------------------------------------------------------//
New Line.L_2038_2039 phases=3 Bus1=bus2038.1.2.3 Bus2=bus2039.1.2.3
 ~ length=800 units=Ft LineCode=OH_3p_type1

//--------------------------------------------------------//
New Line.L_2039_2040 phases=3 Bus1=bus2039.1.2.3 Bus2=bus2040.1.2.3
 ~ length=309 units=Ft LineCode=OH_3p_type1

//--------------------------------------------------------//
New Line.L_2040_2041 phases=3 Bus1=bus2040.1.2.3 Bus2=bus2041.1.2.3
 ~ length=383 units=Ft LineCode=OH_3p_type1

//--------------------------------------------------------//
New Line.L_2039_2042 phases=3 Bus1=bus2039.1.2.3 Bus2=bus2042.1.2.3
 ~ length=35 units=Ft LineCode=UG_3p_type2

//--------------------------------------------------------//
New Line.L_2042_2043 phases=3 Bus1=bus2042.1.2.3 Bus2=bus2043.1.2.3
 ~ length=158 units=Ft LineCode=UG_3p_type2

//--------------------------------------------------------//
New Line.L_2043_2044 phases=3 Bus1=bus2043.1.2.3 Bus2=bus2044.1.2.3
 ~ length=342 units=Ft LineCode=UG_3p_type2

//--------------------------------------------------------//----------B
New Line.L_2044_2045 phases=1 Bus1=bus2044.2 Bus2=bus2045.2
 ~ length=323 units=Ft LineCode=UG_1p_type2

//--------------------------------------------------------//----------B
New Line.L_2045_2046 phases=1 Bus1=bus2045.2 Bus2=bus2046.2
 ~ length=330 units=Ft LineCode=UG_1p_type2

//--------------------------------------------------------//----------B
New Line.L_2045_2047 phases=1 Bus1=bus2045.2 Bus2=bus2047.2
 ~ length=189 units=Ft LineCode=UG_1p_type2

//--------------------------------------------------------//----------B
New Line.L_2047_2048 phases=1 Bus1=bus2047.2 Bus2=bus2048.2
 ~ length=259 units=Ft LineCode=UG_1p_type2

//--------------------------------------------------------//
New Line.L_2044_2049 phases=3 Bus1=bus2044.1.2.3 Bus2=bus2049.1.2.3
 ~ length=130 units=Ft LineCode=UG_3p_type2

//--------------------------------------------------------//
New Line.L_2049_2050 phases=3 Bus1=bus2049.1.2.3 Bus2=bus2050.1.2.3
 ~ length=124 units=Ft LineCode=UG_3p_type2

//--------------------------------------------------------//
New Line.L_2050_2051 phases=3 Bus1=bus2050.1.2.3 Bus2=bus2051.1.2.3
 ~ length=139 units=Ft LineCode=UG_3p_type2

//--------------------------------------------------------//
New Line.L_2051_2052 phases=3 Bus1=bus2051.1.2.3 Bus2=bus2052.1.2.3
 ~ length=134 units=Ft LineCode=UG_3p_type2

//--------------------------------------------------------//
New Line.L_2044_2053 phases=3 Bus1=bus2044.1.2.3 Bus2=bus2053.1.2.3
 ~ length=464 units=Ft LineCode=UG_3p_type2

//--------------------------------------------------------//
New Line.L_2053_2054 phases=3 Bus1=bus2053.1.2.3 Bus2=bus2054.1.2.3
 ~ length=139 units=Ft LineCode=UG_3p_type2

//--------------------------------------------------------//
New Line.L_2054_2055 phases=1 Bus1=bus2054.1.2.3 Bus2=bus2055.1.2.3
 ~ length=156 units=Ft LineCode=UG_3p_type2

//--------------------------------------------------------//
New Line.L_2055_2056 phases=1 Bus1=bus2055.1.2.3 Bus2=bus2056.1.2.3
 ~ length=204 units=Ft LineCode=UG_3p_type2

//--------------------------------------------------------//
New Line.L_2053_2057 phases=3 Bus1=bus2053.1.2.3 Bus2=bus2057.1.2.3
 ~ length=761 units=Ft LineCode=UG_3p_type2

//--------------------------------------------------------//
New Line.L_2057_2058 phases=3 Bus1=bus2057.1.2.3 Bus2=bus2058.1.2.3
 ~ length=407 units=Ft LineCode=UG_3p_type2

//--------------------------------------------------------//
New Line.L_2057_2059 phases=3 Bus1=bus2057.1.2.3 Bus2=bus2059.1.2.3
 ~ length=685 units=Ft LineCode=UG_3p_type2

//--------------------------------------------------------//
New Line.L_2059_2060 phases=3 Bus1=bus2059.1.2.3 Bus2=bus2060.1.2.3
 ~ length=304 units=Ft LineCode=UG_3p_type2

//--------------------------------------------------------//----------
New Line.L_2002_2002_L phases=3 Bus1=bus2002.1.2.3 Bus2=T_bus2002_L.1.2.3
 ~ length=1 units=Ft LineCode=T_type9

//--------------------------------------------------------//----------
New Line.L_2003_2003_L phases=3 Bus1=bus2003.1.2.3.0 Bus2=T_bus2003_L.1.2.3.0
 ~ length=1 units=Ft LineCode=T_type2

//--------------------------------------------------------//----------
New Line.L_2005_2005_L phases=3 Bus1=bus2005.1.2.3.0 Bus2=T_bus2005_L.1.2.3.0
 ~ length=1 units=Ft LineCode=T_type5

//--------------------------------------------------------//----------
New Line.L_2008_2008_L phases=1 Bus1=bus2008.1.0 Bus2=T_bus2008_L.1.0
 ~ length=1 units=Ft LineCode=T_type6

//--------------------------------------------------------//----------
New Line.L_2009_2009_L phases=1 Bus1=bus2009.1.0 Bus2=T_bus2009_L.1.0
 ~ length=1 units=Ft LineCode=T_type6

//--------------------------------------------------------//----------
New Line.L_2010_2010_L phases=3 Bus1=bus2010.1.2.3.0 Bus2=T_bus2010_L.1.2.3.0
 ~ length=1 units=Ft LineCode=T_type5

//--------------------------------------------------------//----------
New Line.L_2011_2011_L phases=3 Bus1=bus2011.1.2.3.0 Bus2=T_bus2011_L.1.2.3.0
 ~ length=1 units=Ft LineCode=T_type5

//--------------------------------------------------------//----------
New Line.L_2014_2014_L phases=1 Bus1=bus2014.2.0 Bus2=T_bus2014_L.2.0
 ~ length=1 units=Ft LineCode=T_type7

//--------------------------------------------------------//----------
New Line.L_2015_2015_L phases=1 Bus1=bus2015.2.0 Bus2=T_bus2015_L.2.0
 ~ length=1 units=Ft LineCode=T_type6

//--------------------------------------------------------//----------
New Line.L_2016_2016_L phases=1 Bus1=bus2016.2.0 Bus2=T_bus2016_L.2.0
 ~ length=1 units=Ft LineCode=T_type6

//--------------------------------------------------------//----------
New Line.L_2017_2017_L phases=1 Bus1=bus2017.2.0 Bus2=T_bus2017_L.2.0
 ~ length=1 units=Ft LineCode=T_type6

//--------------------------------------------------------//----------
New Line.L_2018_2018_L phases=1 Bus1=bus2018.2.0 Bus2=T_bus2018_L.2.0
 ~ length=1 units=Ft LineCode=T_type6

//--------------------------------------------------------//----------
New Line.L_2020_2020_L phases=1 Bus1=bus2020.2.0 Bus2=T_bus2020_L.2.0
 ~ length=1 units=Ft LineCode=T_type6

//--------------------------------------------------------//----------
New Line.L_2022_2022_L phases=1 Bus1=bus2022.3.0 Bus2=T_bus2022_L.3.0
 ~ length=1 units=Ft LineCode=T_type6

//--------------------------------------------------------//----------
New Line.L_2023_2023_L phases=1 Bus1=bus2023.3.0 Bus2=T_bus2023_L.3.0
 ~ length=1 units=Ft LineCode=T_type10

//--------------------------------------------------------//----------
New Line.L_2024_2024_L phases=1 Bus1=bus2024.3.0 Bus2=T_bus2024_L.3.0
 ~ length=1 units=Ft LineCode=T_type6

//--------------------------------------------------------//----------
New Line.L_2025_2025_L phases=1 Bus1=bus2025.3.0 Bus2=T_bus2025_L.3.0
 ~ length=1 units=Ft LineCode=T_type6

//--------------------------------------------------------//----------
New Line.L_2028_2028_L phases=1 Bus1=bus2028.1.0 Bus2=T_bus2028_L.1.0
 ~ length=1 units=Ft LineCode=T_type6

//--------------------------------------------------------//----------
New Line.L_2029_2029_L phases=3 Bus1=bus2029.1.2.3.0 Bus2=T_bus2029_L.1.2.3.0
 ~ length=1 units=Ft LineCode=T_type2

//--------------------------------------------------------//----------
New Line.L_2030_2030_L phases=3 Bus1=bus2030.1.2.3.0 Bus2=T_bus2030_L.1.2.3.0
 ~ length=1 units=Ft LineCode=T_type2

//--------------------------------------------------------//----------
New Line.L_2031_2031_L phases=1 Bus1=bus2031.1.0 Bus2=T_bus2031_L.1.0
 ~ length=1 units=Ft LineCode=T_type6

//--------------------------------------------------------//----------
New Line.L_2032_2032_L phases=3 Bus1=bus2032.1.2.3.0 Bus2=T_bus2032_L.1.2.3.0
 ~ length=1 units=Ft LineCode=T_type5

//--------------------------------------------------------//----------
New Line.L_2034_2034_L phases=3 Bus1=bus2034.1.2.3.0 Bus2=T_bus2034_L.1.2.3.0
 ~ length=1 units=Ft LineCode=T_type5

//--------------------------------------------------------//----------
New Line.L_2035_2035_L phases=3 Bus1=bus2035.1.2.3.0 Bus2=T_bus2035_L.1.2.3.0
 ~ length=1 units=Ft LineCode=T_type2

//--------------------------------------------------------//----------
New Line.L_2037_2037_L phases=3 Bus1=bus2037.1.2.3.0 Bus2=T_bus2037_L.1.2.3.0
 ~ length=1 units=Ft LineCode=T_type5

//--------------------------------------------------------//----------
New Line.L_2040_2040_L phases=3 Bus1=bus2040.1.2.3.0 Bus2=T_bus2040_L.1.2.3.0
 ~ length=1 units=Ft LineCode=T_type9

//--------------------------------------------------------//----------
New Line.L_2041_2041_L phases=3 Bus1=bus2041.1.2.3.0 Bus2=T_bus2041_L.1.2.3.0
 ~ length=1 units=Ft LineCode=T_type5

//--------------------------------------------------------//----------
New Line.L_2042_2042_L phases=3 Bus1=bus2042.1.2.3.0 Bus2=T_bus2042_L.1.2.3.0
 ~ length=1 units=Ft LineCode=T_type2

//--------------------------------------------------------//----------
New Line.L_2043_2043_L phases=3 Bus1=bus2043.1.2.3.0 Bus2=T_bus2043_L.1.2.3.0
 ~ length=1 units=Ft LineCode=T_type2

//--------------------------------------------------------//----------
New Line.L_2045_2045_L phases=1 Bus1=bus2045.2.0 Bus2=T_bus2045_L.2.0
 ~ length=1 units=Ft LineCode=T_type10

//--------------------------------------------------------//----------
New Line.L_2046_2046_L phases=1 Bus1=bus2046.2.0 Bus2=T_bus2046_L.2.0
 ~ length=1 units=Ft LineCode=T_type8

//--------------------------------------------------------//----------
New Line.L_2047_2047_L phases=1 Bus1=bus2047.2.0 Bus2=T_bus2047_L.2.0
 ~ length=1 units=Ft LineCode=T_type8

//--------------------------------------------------------//----------
New Line.L_2048_2048_L phases=1 Bus1=bus2048.2.0 Bus2=T_bus2048_L.2.0
 ~ length=1 units=Ft LineCode=T_type8

//--------------------------------------------------------//----------
New Line.L_2049_2049_L phases=1 Bus1=bus2049.3.0 Bus2=T_bus2049_L.3.0
 ~ length=1 units=Ft LineCode=T_type7

//--------------------------------------------------------//----------
New Line.L_2050_2050_L phases=1 Bus1=bus2050.3.0 Bus2=T_bus2050_L.3.0
 ~ length=1 units=Ft LineCode=T_type7

//--------------------------------------------------------//----------
New Line.L_2051_2051_L phases=1 Bus1=bus2051.3.0 Bus2=T_bus2051_L.3.0
 ~ length=1 units=Ft LineCode=T_type7

//--------------------------------------------------------//----------
New Line.L_2052_2052_L phases=3 Bus1=bus2052.1.2.3.0 Bus2=T_bus2052_L.1.2.3.0
 ~ length=1 units=Ft LineCode=T_type11

//--------------------------------------------------------//----------
New Line.L_2053_2053_L phases=3 Bus1=bus2053.1.2.3.0 Bus2=T_bus2053_L.1.2.3.0
 ~ length=1 units=Ft LineCode=T_type11

//--------------------------------------------------------//----------
New Line.L_2054_2054_L phases=1 Bus1=bus2054.1.0 Bus2=T_bus2054_L.1.0
 ~ length=1 units=Ft LineCode=T_type7

//--------------------------------------------------------//----------
New Line.L_2055_2055_L phases=1 Bus1=bus2055.1.0 Bus2=T_bus2055_L.1.0
 ~ length=1 units=Ft LineCode=T_type8

//--------------------------------------------------------//----------
New Line.L_2056_2056_L phases=1 Bus1=bus2056.1.0 Bus2=T_bus2056_L.1.0
 ~ length=1 units=Ft LineCode=T_type6

//--------------------------------------------------------//----------
New Line.L_2058_2058_L phases=3 Bus1=bus2058.1.2.3.0 Bus2=T_bus2058_L.1.2.3.0
 ~ length=1 units=Ft LineCode=T_type9

//--------------------------------------------------------//----------
New Line.L_2059_2059_L phases=1 Bus1=bus2059.2.0 Bus2=T_bus2059_L.2.0
 ~ length=1 units=Ft LineCode=T_type6

//--------------------------------------------------------//----------
New Line.L_2060_2060_L phases=1 Bus1=bus2060.2.0 Bus2=T_bus2060_L.2.0
 ~ length=1 units=Ft LineCode=T_type6



//***************************************************************************************//
//                                             Feeder C
//***************************************************************************************//
//--------------------------------------------------------//
New Line.L_3001_3003 phases=3 Bus1=bus3001.1.2.3 Bus2=bus3003.1.2.3
 ~ length=2307 units=Ft LineCode=UG_3p_type1

//--------------------------------------------------------//
New Line.L_3003_3002 phases=3 Bus1=bus3003.1.2.3 Bus2=bus3002.1.2.3
 ~ length=85 units=Ft LineCode=UG_3p_type2

//--------------------------------------------------------//
New Line.L_3003_3004 phases=3 Bus1=bus3003.1.2.3 Bus2=bus3004.1.2.3
 ~ length=81 units=Ft LineCode=UG_3p_type2

//--------------------------------------------------------//
New Line.L_3003_3005 phases=3 Bus1=bus3003.1.2.3 Bus2=bus3005.1.2.3
 ~ length=1997 units=Ft LineCode=UG_3p_type1

//--------------------------------------------------------//
New Line.L_3005_3006 phases=3 Bus1=bus3005.1.2.3 Bus2=bus3006.1.2.3
 ~ length=311 units=Ft LineCode=OH_3p_type1

//--------------------------------------------------------//
New Line.L_3006_3007 phases=3 Bus1=bus3006.1.2.3 Bus2=bus3007.1.2.3
 ~ length=370 units=Ft LineCode=OH_3p_type1

//--------------------------------------------------------//
New Line.L_3005_3008 phases=3 Bus1=bus3005.1.2.3 Bus2=bus3008.1.2.3
 ~ length=136 units=Ft LineCode=OH_3p_type1

//--------------------------------------------------------//------------A
New Line.L_3008_3009 phases=1 Bus1=bus3008.1 Bus2=bus3009.1
 ~ length=161 units=Ft LineCode=OH_1p_type5

//--------------------------------------------------------//------------A
New Line.L_3009_3010 phases=1 Bus1=bus3009.1 Bus2=bus3010.1
 ~ length=347 units=Ft LineCode=OH_1p_type5

//--------------------------------------------------------//------------A
New Line.L_3010_3011 phases=1 Bus1=bus3010.1 Bus2=bus3011.1
 ~ length=265 units=Ft LineCode=OH_1p_type5

//--------------------------------------------------------//------------A
New Line.L_3011_3012 phases=1 Bus1=bus3011.1 Bus2=bus3012.1
 ~ length=312 units=Ft LineCode=OH_1p_type5

//--------------------------------------------------------//------------B
New Line.L_3008_3013 phases=1 Bus1=bus3008.2 Bus2=bus3013.2
 ~ length=170 units=Ft LineCode=OH_1p_type5

//--------------------------------------------------------//------------B
New Line.L_3013_3014 phases=1 Bus1=bus3013.2 Bus2=bus3014.2
 ~ length=295 units=Ft LineCode=OH_1p_type5

//--------------------------------------------------------//
New Line.L_3008_3015 phases=3 Bus1=bus3008.1.2.3 Bus2=bus3015.1.2.3
 ~ length=322 units=Ft LineCode=OH_3p_type1

//--------------------------------------------------------//------------B
New Line.L_3015_3016 phases=1 Bus1=bus3015.2 Bus2=bus3016.2
 ~ length=210 units=Ft LineCode=OH_1p_type5

//--------------------------------------------------------//------------B
New Line.L_3016_3017 phases=1 Bus1=bus3016.2 Bus2=bus3017.2
 ~ length=259 units=Ft LineCode=OH_1p_type5

//--------------------------------------------------------//------------C
New Line.L_3015_3018 phases=1 Bus1=bus3015.3 Bus2=bus3018.3
 ~ length=181 units=Ft LineCode=OH_1p_type5

//--------------------------------------------------------//------------C
New Line.L_3018_3019 phases=1 Bus1=bus3018.3 Bus2=bus3019.3
 ~ length=281 units=Ft LineCode=OH_1p_type5

//--------------------------------------------------------//------------C
New Line.L_3019_3020 phases=1 Bus1=bus3019.3 Bus2=bus3020.3
 ~ length=307 units=Ft LineCode=OH_1p_type5

//--------------------------------------------------------//------------C
New Line.L_3020_3021 phases=1 Bus1=bus3020.3 Bus2=bus3021.3
 ~ length=303 units=Ft LineCode=OH_1p_type5

//--------------------------------------------------------//
New Line.L_3015_3022 phases=3 Bus1=bus3015.1.2.3 Bus2=bus3022.1.2.3
 ~ length=289 units=Ft LineCode=OH_3p_type1

//--------------------------------------------------------//------------A
New Line.L_3022_3023 phases=1 Bus1=bus3022.1 Bus2=bus3023.1
 ~ length=181 units=Ft LineCode=OH_1p_type5

//--------------------------------------------------------//------------A
New Line.L_3023_3024 phases=1 Bus1=bus3023.1 Bus2=bus3024.1
 ~ length=320 units=Ft LineCode=OH_1p_type5

//--------------------------------------------------------//------------A
New Line.L_3024_3025 phases=1 Bus1=bus3024.1 Bus2=bus3025.1
 ~ length=331 units=Ft LineCode=OH_1p_type5

//--------------------------------------------------------//------------A
New Line.L_3022_3026 phases=1 Bus1=bus3022.1 Bus2=bus3026.1
 ~ length=164 units=Ft LineCode=OH_1p_type5

//--------------------------------------------------------//------------A
New Line.L_3026_3027 phases=1 Bus1=bus3026.1 Bus2=bus3027.1
 ~ length=368 units=Ft LineCode=OH_1p_type5

//--------------------------------------------------------//------------A
New Line.L_3027_3028 phases=1 Bus1=bus3027.1 Bus2=bus3028.1
 ~ length=241 units=Ft LineCode=OH_1p_type5

//--------------------------------------------------------//------------A
New Line.L_3028_3029 phases=1 Bus1=bus3028.1 Bus2=bus3029.1
 ~ length=317 units=Ft LineCode=OH_1p_type5

//--------------------------------------------------------//
New Line.L_3022_3030 phases=3 Bus1=bus3022.1.2.3 Bus2=bus3030.1.2.3
 ~ length=304 units=Ft LineCode=OH_3p_type1

//--------------------------------------------------------//
New Line.L_3030_3035 phases=3 Bus1=bus3030.1.2.3 Bus2=bus3035.1.2.3
 ~ length=103 units=Ft LineCode=OH_3p_type1

//--------------------------------------------------------//
New Line.L_3035_3036 phases=3 Bus1=bus3035.1.2.3 Bus2=bus3036.1.2.3
 ~ length=271 units=Ft LineCode=OH_3p_type1

//--------------------------------------------------------//
New Line.L_3036_3037 phases=3 Bus1=bus3036.1.2.3 Bus2=bus3037.1.2.3
 ~ length=136 units=Ft LineCode=OH_3p_type1

//--------------------------------------------------------//
New Line.L_3037_3038 phases=3 Bus1=bus3037.1.2.3 Bus2=bus3038.1.2.3
 ~ length=252 units=Ft LineCode=OH_3p_type1

//--------------------------------------------------------//
New Line.L_3038_3039 phases=3 Bus1=bus3038.1.2.3 Bus2=bus3039.1.2.3
 ~ length=235 units=Ft LineCode=OH_3p_type1

//--------------------------------------------------------//
New Line.L_3039_3053 phases=3 Bus1=bus3039.1.2.3 Bus2=bus3053.1.2.3
 ~ length=263 units=Ft LineCode=OH_3p_type1

//--------------------------------------------------------//
New Line.L_3053_3054 phases=3 Bus1=bus3053.1.2.3 Bus2=bus3054.1.2.3
 ~ length=280 units=Ft LineCode=UG_3p_type2

//--------------------------------------------------------//------------B
New Line.L_3053_3055 phases=1 Bus1=bus3053.2 Bus2=bus3055.2
 ~ length=1335 units=Ft LineCode=UG_1p_type2

//--------------------------------------------------------//------------B
New Line.L_3055_3056 phases=1 Bus1=bus3055.2 Bus2=bus3056.2
 ~ length=128 units=Ft LineCode=UG_1p_type2

//--------------------------------------------------------//------------B
New Line.L_3056_3057 phases=1 Bus1=bus3056.2 Bus2=bus3057.2
 ~ length=178 units=Ft LineCode=UG_1p_type2

//--------------------------------------------------------//------------B
New Line.L_3057_3058 phases=1 Bus1=bus3057.2 Bus2=bus3058.2
 ~ length=178 units=Ft LineCode=UG_1p_type2

//--------------------------------------------------------//------------B
New Line.L_3058_3059 phases=1 Bus1=bus3058.2 Bus2=bus3059.2
 ~ length=274 units=Ft LineCode=UG_1p_type2

//--------------------------------------------------------//------------B
New Line.L_3059_3060 phases=1 Bus1=bus3059.2 Bus2=bus3060.2
 ~ length=77 units=Ft LineCode=UG_1p_type2

//--------------------------------------------------------//------------B
New Line.L_3060_3061 phases=1 Bus1=bus3060.2 Bus2=bus3061.2
 ~ length=184 units=Ft LineCode=UG_1p_type2

//--------------------------------------------------------//------------B
New Line.L_3055_3062 phases=1 Bus1=bus3055.2 Bus2=bus3062.2
 ~ length=443 units=Ft LineCode=UG_1p_type2

//--------------------------------------------------------//------------B
New Line.L_3062_3063 phases=1 Bus1=bus3062.2 Bus2=bus3063.2
 ~ length=198 units=Ft LineCode=UG_1p_type2

//--------------------------------------------------------//------------B
New Line.L_3063_3064 phases=1 Bus1=bus3063.2 Bus2=bus3064.2
 ~ length=157 units=Ft LineCode=UG_1p_type2

//--------------------------------------------------------//------------B
New Line.L_3064_3065 phases=1 Bus1=bus3064.2 Bus2=bus3065.2
 ~ length=205 units=Ft LineCode=UG_1p_type2

//--------------------------------------------------------//------------B
New Line.L_3065_3066 phases=1 Bus1=bus3065.2 Bus2=bus3066.2
 ~ length=123 units=Ft LineCode=UG_1p_type2

//--------------------------------------------------------//------------B
New Line.L_3066_3067 phases=1 Bus1=bus3066.2 Bus2=bus3067.2
 ~ length=274 units=Ft LineCode=UG_1p_type2

//--------------------------------------------------------//
New Line.L_3030_3040 phases=3 Bus1=bus3030.1.2.3 Bus2=bus3040.1.2.3
 ~ length=332 units=Ft LineCode=OH_3p_type1

//--------------------------------------------------------//------------C
New Line.L_3040_3044 phases=1 Bus1=bus3040.3 Bus2=bus3044.3
 ~ length=144 units=Ft LineCode=OH_1p_type5

//--------------------------------------------------------//------------C
New Line.L_3044_3045 phases=1 Bus1=bus3044.3 Bus2=bus3045.3
 ~ length=393 units=Ft LineCode=OH_1p_type5

//--------------------------------------------------------//------------C
New Line.L_3040_3041 phases=1 Bus1=bus3040.3 Bus2=bus3041.3
 ~ length=121 units=Ft LineCode=OH_1p_type5

//--------------------------------------------------------//------------C
New Line.L_3041_3042 phases=1 Bus1=bus3041.3 Bus2=bus3042.3
 ~ length=328 units=Ft LineCode=OH_1p_type5

//--------------------------------------------------------//------------C
New Line.L_3042_3043 phases=1 Bus1=bus3042.3 Bus2=bus3043.3
 ~ length=418 units=Ft LineCode=OH_1p_type5

//--------------------------------------------------------//
New Line.L_3040_3046 phases=3 Bus1=bus3040.1.2.3 Bus2=bus3046.1.2.3
 ~ length=329 units=Ft LineCode=OH_3p_type1

//--------------------------------------------------------//
New Line.L_3046_3047 phases=3 Bus1=bus3046.1.2.3 Bus2=bus3047.1.2.3
 ~ length=219 units=Ft LineCode=OH_3p_type1

//--------------------------------------------------------//
New Line.L_3046_3048 phases=3 Bus1=bus3046.1.2.3 Bus2=bus3048.1.2.3
 ~ length=130 units=Ft LineCode=OH_3p_type1

//--------------------------------------------------------//
New Line.L_3048_3049 phases=3 Bus1=bus3048.1.2.3 Bus2=bus3049.1.2.3
 ~ length=226 units=Ft LineCode=OH_3p_type1

//--------------------------------------------------------//
New Line.L_3049_3050 phases=3 Bus1=bus3049.1.2.3 Bus2=bus3050.1.2.3
 ~ length=167 units=Ft LineCode=OH_3p_type1

//--------------------------------------------------------//
New Line.L_3050_3051 phases=3 Bus1=bus3050.1.2.3 Bus2=bus3051.1.2.3
 ~ length=360 units=Ft LineCode=OH_3p_type1

//--------------------------------------------------------//
New Line.L_3051_3052 phases=3 Bus1=bus3051.1.2.3 Bus2=bus3052.1.2.3
 ~ length=292 units=Ft LineCode=OH_3p_type1

//--------------------------------------------------------//
New Line.L_3030_3031 phases=3 Bus1=bus3030.1.2.3 Bus2=bus3031.1.2.3
 ~ length=243 units=Ft LineCode=OH_3p_type1

//--------------------------------------------------------//
New Line.L_3031_3032 phases=3 Bus1=bus3031.1.2.3 Bus2=bus3032.1.2.3
 ~ length=251 units=Ft LineCode=OH_3p_type1

//--------------------------------------------------------//
New Line.L_3032_3033 phases=3 Bus1=bus3032.1.2.3 Bus2=bus3033.1.2.3
 ~ length=388 units=Ft LineCode=OH_3p_type1

//--------------------------------------------------------//
New Line.L_3033_3034 phases=3 Bus1=bus3033.1.2.3 Bus2=bus3034.1.2.3
 ~ length=257 units=Ft LineCode=OH_3p_type1

//--------------------------------------------------------//
New Line.L_3034_3068 phases=3 Bus1=bus3034.1.2.3 Bus2=bus3068.1.2.3
 ~ length=164 units=Ft LineCode=OH_3p_type1

//--------------------------------------------------------//
New Line.L_3068_3069 phases=3 Bus1=bus3068.1.2.3 Bus2=bus3069.1.2.3
 ~ length=329 units=Ft LineCode=OH_3p_type1

//--------------------------------------------------------//
New Line.L_3069_3070 phases=3 Bus1=bus3069.1.2.3 Bus2=bus3070.1.2.3
 ~ length=107 units=Ft LineCode=UG_3p_type2

//--------------------------------------------------------//
New Line.L_3070_3071 phases=3 Bus1=bus3070.1.2.3 Bus2=bus3071.1.2.3
 ~ length=141 units=Ft LineCode=UG_3p_type2

//--------------------------------------------------------//
New Line.L_3071_3072 phases=3 Bus1=bus3071.1.2.3 Bus2=bus3072.1.2.3
 ~ length=90 units=Ft LineCode=UG_3p_type2

//--------------------------------------------------------//
New Line.L_3069_3073 phases=3 Bus1=bus3069.1.2.3 Bus2=bus3073.1.2.3
 ~ length=20 units=Ft LineCode=OH_3p_type1

//--------------------------------------------------------//
New Line.L_3073_3074 phases=3 Bus1=bus3073.1.2.3 Bus2=bus3074.1.2.3
 ~ length=340 units=Ft LineCode=OH_3p_type1

//--------------------------------------------------------//
New Line.L_3068_3075 phases=3 Bus1=bus3068.1.2.3 Bus2=bus3075.1.2.3
 ~ length=188 units=Ft LineCode=OH_3p_type1

//--------------------------------------------------------//
New Line.L_3076_3077 phases=3 Bus1=bus3076.1.2.3 Bus2=bus3077.1.2.3
 ~ length=877 units=Ft LineCode=OH_3p_type1

//--------------------------------------------------------//
New Line.L_3077_3078 phases=3 Bus1=bus3077.1.2.3 Bus2=bus3078.1.2.3
 ~ length=80 units=Ft LineCode=OH_3p_type1

//--------------------------------------------------------//
New Line.L_3076_3079 phases=3 Bus1=bus3076.1.2.3 Bus2=bus3079.1.2.3
 ~ length=191 units=Ft LineCode=OH_3p_type1

//--------------------------------------------------------//
New Line.L_3079_3080 phases=3 Bus1=bus3079.1.2.3 Bus2=bus3080.1.2.3
 ~ length=604 units=Ft LineCode=OH_3p_type1

//--------------------------------------------------------//
New Line.L_3080_3081 phases=3 Bus1=bus3080.1.2.3 Bus2=bus3081.1.2.3
 ~ length=195 units=Ft LineCode=OH_3p_type1

//--------------------------------------------------------//
New Line.L_3080_3082 phases=3 Bus1=bus3080.1.2.3 Bus2=bus3082.1.2.3
 ~ length=540 units=Ft LineCode=OH_3p_type1

//--------------------------------------------------------//------------A
New Line.L_3082_3083 phases=1 Bus1=bus3082.1 Bus2=bus3083.1
 ~ length=125 units=Ft LineCode=UG_1p_type2

//--------------------------------------------------------//------------A
New Line.L_3083_3084 phases=1 Bus1=bus3083.1 Bus2=bus3084.1
 ~ length=196 units=Ft LineCode=UG_1p_type2

//--------------------------------------------------------//------------A
New Line.L_3084_3085 phases=1 Bus1=bus3084.1 Bus2=bus3085.1
 ~ length=515 units=Ft LineCode=UG_1p_type2

//--------------------------------------------------------//------------A
New Line.L_3085_3086 phases=1 Bus1=bus3085.1 Bus2=bus3086.1
 ~ length=338 units=Ft LineCode=UG_1p_type2

//--------------------------------------------------------//------------A
New Line.L_3086_3087 phases=1 Bus1=bus3086.1 Bus2=bus3087.1
 ~ length=239 units=Ft LineCode=UG_1p_type2

//--------------------------------------------------------//------------A
New Line.L_3087_3088 phases=1 Bus1=bus3087.1 Bus2=bus3088.1
 ~ length=420 units=Ft LineCode=UG_1p_type2

//--------------------------------------------------------//------------A
New Line.L_3088_3089 phases=1 Bus1=bus3088.1 Bus2=bus3089.1
 ~ length=112 units=Ft LineCode=UG_1p_type2

//--------------------------------------------------------//------------A
New Line.L_3089_3090 phases=1 Bus1=bus3089.1 Bus2=bus3090.1
 ~ length=565 units=Ft LineCode=UG_1p_type2

//--------------------------------------------------------//------------A
New Line.L_3090_3091 phases=1 Bus1=bus3090.1 Bus2=bus3091.1
 ~ length=222 units=Ft LineCode=UG_1p_type2

//--------------------------------------------------------//
New Line.L_3082_3092 phases=3 Bus1=bus3082.1.2.3 Bus2=bus3092.1.2.3
 ~ length=185 units=Ft LineCode=UG_3p_type2

//--------------------------------------------------------//------------A
New Line.L_3092_3093 phases=1 Bus1=bus3092.1 Bus2=bus3093.1
 ~ length=230 units=Ft LineCode=UG_1p_type2

//--------------------------------------------------------//------------A
New Line.L_3093_3094 phases=1 Bus1=bus3093.1 Bus2=bus3094.1
 ~ length=125 units=Ft LineCode=UG_1p_type2

//--------------------------------------------------------//------------A
New Line.L_3094_3095 phases=1 Bus1=bus3094.1 Bus2=bus3095.1
 ~ length=65 units=Ft LineCode=UG_1p_type2

//--------------------------------------------------------//------------A
New Line.L_3095_3096 phases=1 Bus1=bus3095.1 Bus2=bus3096.1
 ~ length=296 units=Ft LineCode=UG_1p_type2

//--------------------------------------------------------//------------A
New Line.L_3096_3097 phases=1 Bus1=bus3096.1 Bus2=bus3097.1
 ~ length=117 units=Ft LineCode=UG_1p_type2

//--------------------------------------------------------//------------B
New Line.L_3092_3098 phases=1 Bus1=bus3092.2 Bus2=bus3098.2
 ~ length=284 units=Ft LineCode=UG_1p_type2

//--------------------------------------------------------//------------B
New Line.L_3098_3099 phases=1 Bus1=bus3098.2 Bus2=bus3099.2
 ~ length=368 units=Ft LineCode=UG_1p_type2

//--------------------------------------------------------//
New Line.L_3092_3100 phases=3 Bus1=bus3092.1.2.3 Bus2=bus3100.1.2.3
 ~ length=91 units=Ft LineCode=UG_3p_type2

//--------------------------------------------------------//------------C
New Line.L_3100_3101 phases=1 Bus1=bus3100.3 Bus2=bus3101.3
 ~ length=157 units=Ft LineCode=UG_1p_type2

//--------------------------------------------------------//------------C
New Line.L_3101_3102 phases=1 Bus1=bus3101.3 Bus2=bus3102.3
 ~ length=225 units=Ft LineCode=UG_1p_type2

//--------------------------------------------------------//------------C
New Line.L_3102_3103 phases=1 Bus1=bus3102.3 Bus2=bus3103.3
 ~ length=134 units=Ft LineCode=UG_1p_type2

//--------------------------------------------------------//------------C
New Line.L_3100_3104 phases=1 Bus1=bus3100.3 Bus2=bus3104.3
 ~ length=223 units=Ft LineCode=UG_1p_type2

//--------------------------------------------------------//------------C
New Line.L_3104_3105 phases=1 Bus1=bus3104.3 Bus2=bus3105.3
 ~ length=120 units=Ft LineCode=UG_1p_type2

//--------------------------------------------------------//------------C
New Line.L_3105_3106 phases=1 Bus1=bus3105.3 Bus2=bus3106.3
 ~ length=181 units=Ft LineCode=UG_1p_type2

//--------------------------------------------------------//
New Line.L_3082_3107 phases=3 Bus1=bus3082.1.2.3 Bus2=bus3107.1.2.3
 ~ length=1461 units=Ft LineCode=UG_3p_type1

//--------------------------------------------------------//------------A
New Line.L_3107_3108 phases=1 Bus1=bus3107.1 Bus2=bus3108.1
 ~ length=466 units=Ft LineCode=UG_1p_type2

//--------------------------------------------------------//------------A
New Line.L_3108_3109 phases=1 Bus1=bus3108.1 Bus2=bus3109.1
 ~ length=136 units=Ft LineCode=UG_1p_type2

//--------------------------------------------------------//------------A
New Line.L_3109_3110 phases=1 Bus1=bus3109.1 Bus2=bus3110.1
 ~ length=152 units=Ft LineCode=UG_1p_type2

//--------------------------------------------------------//------------A
New Line.L_3110_3111 phases=1 Bus1=bus3110.1 Bus2=bus3111.1
 ~ length=276 units=Ft LineCode=UG_1p_type2

//--------------------------------------------------------//------------A
New Line.L_3111_3112 phases=1 Bus1=bus3111.1 Bus2=bus3112.1
 ~ length=328 units=Ft LineCode=UG_1p_type2

//--------------------------------------------------------//------------B
New Line.L_3107_3113 phases=1 Bus1=bus3107.2 Bus2=bus3113.2
 ~ length=245 units=Ft LineCode=UG_1p_type2

//--------------------------------------------------------//------------B
New Line.L_3113_3114 phases=1 Bus1=bus3113.2 Bus2=bus3114.2
 ~ length=149 units=Ft LineCode=UG_1p_type2

//--------------------------------------------------------//------------B
New Line.L_3114_3115 phases=1 Bus1=bus3114.2 Bus2=bus3115.2
 ~ length=331 units=Ft LineCode=UG_1p_type2

//--------------------------------------------------------//------------B
New Line.L_3113_3116 phases=1 Bus1=bus3113.2 Bus2=bus3116.2
 ~ length=456 units=Ft LineCode=UG_1p_type2

//--------------------------------------------------------//------------B
New Line.L_3116_3117 phases=1 Bus1=bus3116.2 Bus2=bus3117.2
 ~ length=112 units=Ft LineCode=UG_1p_type2

//--------------------------------------------------------//
New Line.L_3107_3118 phases=3 Bus1=bus3107.1.2.3 Bus2=bus3118.1.2.3
 ~ length=2267 units=Ft LineCode=UG_3p_type1

//--------------------------------------------------------//------------B
New Line.L_3118_3119 phases=1 Bus1=bus3118.2 Bus2=bus3119.2
 ~ length=464 units=Ft LineCode=UG_1p_type2

//--------------------------------------------------------//------------B
New Line.L_3119_3120 phases=1 Bus1=bus3119.2 Bus2=bus3120.2
 ~ length=350 units=Ft LineCode=UG_1p_type2

//--------------------------------------------------------//------------B
New Line.L_3120_3121 phases=1 Bus1=bus3120.2 Bus2=bus3121.2
 ~ length=206 units=Ft LineCode=UG_1p_type2

//--------------------------------------------------------//------------B
New Line.L_3121_3122 phases=1 Bus1=bus3121.2 Bus2=bus3122.2
 ~ length=177 units=Ft LineCode=UG_1p_type2

//--------------------------------------------------------//------------B
New Line.L_3119_3123 phases=1 Bus1=bus3119.2 Bus2=bus3123.2
 ~ length=91 units=Ft LineCode=UG_1p_type2

//--------------------------------------------------------//------------B
New Line.L_3123_3124 phases=1 Bus1=bus3123.2 Bus2=bus3124.2
 ~ length=67 units=Ft LineCode=UG_1p_type2

//--------------------------------------------------------//------------B
New Line.L_3124_3125 phases=1 Bus1=bus3124.2 Bus2=bus3125.2
 ~ length=151 units=Ft LineCode=UG_1p_type2

//--------------------------------------------------------//------------B
New Line.L_3125_3126 phases=1 Bus1=bus3125.2 Bus2=bus3126.2
 ~ length=343 units=Ft LineCode=UG_1p_type2

//--------------------------------------------------------//------------B
New Line.L_3126_3127 phases=1 Bus1=bus3126.2 Bus2=bus3127.2
 ~ length=234 units=Ft LineCode=UG_1p_type2

//--------------------------------------------------------//------------B
New Line.L_3127_3128 phases=1 Bus1=bus3127.2 Bus2=bus3128.2
 ~ length=238 units=Ft LineCode=UG_1p_type2

//--------------------------------------------------------//------------B
New Line.L_3128_3129 phases=1 Bus1=bus3128.2 Bus2=bus3129.2
 ~ length=243 units=Ft LineCode=UG_1p_type2

//--------------------------------------------------------//------------B
New Line.L_3129_3130 phases=1 Bus1=bus3129.2 Bus2=bus3130.2
 ~ length=230 units=Ft LineCode=UG_1p_type2

//--------------------------------------------------------//------------B
New Line.L_3130_3131 phases=1 Bus1=bus3130.2 Bus2=bus3131.2
 ~ length=194 units=Ft LineCode=UG_1p_type2

//--------------------------------------------------------//------------A
New Line.L_3118_3132 phases=1 Bus1=bus3118.1 Bus2=bus3132.1
 ~ length=501 units=Ft LineCode=UG_1p_type2

//--------------------------------------------------------//------------A
New Line.L_3132_3133 phases=1 Bus1=bus3132.1 Bus2=bus3133.1
 ~ length=145 units=Ft LineCode=UG_1p_type2

//--------------------------------------------------------//------------A
New Line.L_3133_3134 phases=1 Bus1=bus3133.1 Bus2=bus3134.1
 ~ length=281 units=Ft LineCode=UG_1p_type2

//--------------------------------------------------------//------------A
...